*KEYWORD_ID
DED
*PARAMETER
Rboltz    5.6704E-14
*PARAMETER
Rambient       300.0
*PARAMETER
Rabszero         0.0
*TOOL_FILE
toolpath.crs
*GAUSS_LASER
400 1.12 0.4
*SCALAR_OUT
temp
solid_rate
theta_hist
nid_true
*CONTROL_TERMINATION
$$  ENDTIM    ENDCYC     DTMIN    ENDENG    ENDMAS
   15
*CONTROL_TIMESTEP
$$  DTINIT    TSSFAC      ISDO    TSLIMT     DT2MS      LCTM     EROD       E     MSIST
    0.01       1.0
*CONTROL_SOLUTION
$$    SOLN
         0
*DATABASE_NODOUT
$$      DT    BINARY      LCUR      IOPT      DTHF     BINHF
    10.000         0
*MAT_THERMAL_ISOTROPIC_TD
$HMNAME MATS       1MATT1_1
         1   0.0081 1533  1609   250
./materials/IN718_cp.txt
./materials/IN718_cond.txt
*MAT_THERMAL_ISOTROPIC_TD
$HMNAME MATS       2MATT1_2
         2   0.0081 1533  1609   250
./materials/IN718_cp.txt
./materials/IN718_cond.txt
*PART
$HWCOLOR COMPS       1       3
Substrate
         1         0         1
$HWCOLOR COMPS       2       4
Build
         2         0         2
*LOAD_NODE_SET
$HMNAME LOADCOLS       1LoadNode_1
         3         1               300.0
$	 moving flux
         2         5                 0.0
$	 Radiation
         2         4                 0.2
$	 convection
         2         3             0.00005
*INITIAL_TEMPERATURE_SET
$HMNAME LOADCOLS       1InitialTemp_1
$HWCOLOR LOADCOLS       1       3
         1     300.0
*DEFINE_CURVE
         1                 1.0       1.0
          0.03000000         10.00000000
          0.13000000         15.00000000
          0.23000000         20.00000000
          0.33000000         25.00000000
          0.43000000         30.00000000
          0.53000000         35.00000000
          0.63000000         40.00000000
          0.73000000         45.00000000
          0.83000000         50.00000000
          1.00000000         49.00000000
          1.03000000         44.00000000
          1.13000000         39.00000000
          1.23000000         34.00000000
          1.33000000         29.00000000
          1.43000000         24.00000000
          1.53000000         19.00000000
          1.63000000         14.00000000
          1.73000000          9.00000000
          1.83000000          4.00000000
$ ... 30 like lines cut
*NODE
$#   nid               x               y               z      tc      rc
       1       -5.000000       -0.500000        5.000000       0       0
       2       -5.000000        0.500000        5.000000       0       0
       3       -5.000000        0.500000        0.000000       0       0
       4       -5.000000       -0.500000        0.000000       0       0
       5        5.000000        0.500000        5.000000       0       0
       6        5.000000        0.500000        0.000000       0       0
       7        5.000000       -0.500000        0.000000       0       0
       8        5.000000       -0.500000        5.000000       0       0
       9       -7.000000        1.500000        0.000000       0       0
      10       -7.000000       -1.500000        0.000000       0       0
      11        7.000000       -1.500000        0.000000       0       0
      12        7.000000        1.500000        0.000000       0       0
      13        7.000000       -1.500000       -3.000000       0       0
      14       -7.000000       -1.500000       -3.000000       0       0
      15       -7.000000        1.500000       -3.000000       0       0
      16        7.000000        1.500000       -3.000000       0       0
      17       -5.000000        0.500000        4.000000       0       0
      18       -5.000000        0.500000        3.000000       0       0
      19       -5.000000        0.500000        2.000000       0       0
      20       -5.000000        0.500000        1.000000       0       0
$ ... 330 like lines cut
*ELEMENT_SOLID
$#   eid     pid      n1      n2      n3      n4      n5      n6      n7      n8
       1       1      50      60     173     137       1       2      17      24
       2       1     137     173     174     138      24      17      18      23
       3       1     138     174     175     139      23      18      19      22
       4       1     139     175     176     140      22      19      20      21
       5       1     140     176      59      33      21      20       3       4
       6       1      49      61     177     141      50      60     173     137
       7       1     141     177     178     142     137     173     174     138
       8       1     142     178     179     143     138     174     175     139
       9       1     143     179     180     144     139     175     176     140
      10       1     144     180      58      34     140     176      59      33
      11       1      48      62     181     145      49      61     177     141
      12       1     145     181     182     146     141     177     178     142
      13       1     146     182     183     147     142     178     179     143
      14       1     147     183     184     148     143     179     180     144
      15       1     148     184      57      35     144     180      58      34
      16       1      47      63     185     149      48      62     181     145
      17       1     149     185     186     150     145     181     182     146
      18       1     150     186     187     151     146     182     183     147
      19       1     151     187     188     152     147     183     184     148
      20       1     152     188      56      36     148     184      57      35
$ ... 156 like lines cut
*SET_NODE_LIST
$#     sid       da1       da2       da3       da4    solver
         1
$#    nid1      nid2      nid3      nid4      nid5      nid6      nid7      nid8
         1         2         3         4         5         6         7         8
         9        10        11        12        13        14        15        16
        17        18        19        20        21        22        23        24
        25        26        27        28        29        30        31        32
        33        34        35        36        37        38        39        40
        41        42        43        44        45        46        47        48
        49        50        51        52        53        54        55        56
        57        58        59        60        61        62        63        64
        65        66        67        68        69        70        71        72
        73        74        75        76        77        78        79        80
        81        82        83        84        85        86        87        88
        89        90        91        92        93        94        95        96
        97        98        99       100       101       102       103       104
       105       106       107       108       109       110       111       112
       113       114       115       116       117       118       119       120
       121       122       123       124       125       126       127       128
       129       130       131       132       133       134       135       136
       137       138       139       140       141       142       143       144
       145       146       147       148       149       150       151       152
       153       154       155       156       157       158       159       160
$ ... 24 like lines cut
*SET_NODE_LIST
$#     sid       da1       da2       da3       da4    solver
         2
$#    nid1      nid2      nid3      nid4      nid5      nid6      nid7      nid8
         1         2         3         4         5         6         7         8
         9        10        11        12        17        18        19        20
        21        22        23        24        25        26        27        28
        29        30        31        32        33        34        35        36
        37        38        39        40        41        42        43        44
        45        46        47        48        49        50        51        52
        53        54        55        56        57        58        59        60
        61        62        63        64        65        66        67        68
        69        70        71        72        73        74        75        76
        77        78        79        80        81        82        83        84
        85        86        87        88        89        90        91        92
        93        94        95        96        97        98       137       138
       139       140       141       142       143       144       145       146
       147       148       149       150       151       152       153       154
       155       156       157       158       159       160       161       162
       163       164       165       166       167       168       169       170
       171       172       173       174       175       176       177       178
       179       180       181       182       183       184       185       186
       187       188       189       190       191       192       193       194
       195       196       197       198       199       200       201       202
       203       204       205       206       207       208       209       210
       211       212
*SET_NODE_LIST
$#     sid       da1       da2       da3       da4    solver
         3
$#    nid1      nid2      nid3      nid4      nid5      nid6      nid7      nid8

*SET_SOLID
$#     sid    solver
         1MECH
$#      k1        k2        k3        k4        k5        k6        k7        k8
         1         2         3         4         5         6         7         8
         9        10        11        12        13        14        15        16
        17        18        19        20        21        22        23        24
        25        26        27        28        29        30        31        32
        33        34        35        36        37        38        39        40
        41        42        43        44        45        46        47        48
        49        50
*SET_SOLID
$#     sid    solver
         2MECH
$#      k1        k2        k3        k4        k5        k6        k7        k8
        51        52        53        54        55        56        57        58
        59        60        61        62        63        64        65        66
        67        68        69        70        71        72        73        74
        75        76        77        78        79        80        81        82
        83        84        85        86        87        88        89        90
        91        92        93        94        95        96        97        98
        99       100       101       102       103       104       105       106
       107       108       109       110       111       112       113       114
       115       116       117       118       119       120       121       122
       123       124       125       126       127       128       129       130
       131       132       133       134       135       136       137       138
       139       140       141       142       143       144       145       146
       147       148       149       150       151       152       153       154
       155       156       157       158       159       160       161       162
       163       164       165       166       167       168       169       170
       171       172       173       174       175       176
*END