*KEYWORD_ID
DED
*PARAMETER
Rboltz    5.6704E-14
*PARAMETER
Rambient       300.0
*PARAMETER
Rabszero         0.0
*TOOL_FILE
toolpath_1x5.crs
*GAUSS_LASER
400 1.12 0.4
*SCALAR_OUT
temp
solid_rate
theta_hist
nid_true
*CONTROL_TERMINATION
$$  ENDTIM    ENDCYC     DTMIN    ENDENG    ENDMAS
   2
*CONTROL_TIMESTEP
$$  DTINIT    TSSFAC      ISDO    TSLIMT     DT2MS      LCTM     EROD       E     MSIST
    0.01       1.0
*CONTROL_SOLUTION
$$    SOLN
         0
*DATABASE_NODOUT
$$      DT    BINARY      LCUR      IOPT      DTHF     BINHF
    10.000         0
*MAT_THERMAL_ISOTROPIC_TD
$HMNAME MATS       1MATT1_1
         1   0.0081 1533  1609   250
./materials/IN718_cp.txt
./materials/IN718_cond.txt
*MAT_THERMAL_ISOTROPIC_TD
$HMNAME MATS       2MATT1_2
         2   0.0081 1533  1609   250
./materials/IN718_cp.txt
./materials/IN718_cond.txt
*PART
$HWCOLOR COMPS       1       3
Substrate
         1         0         1
$HWCOLOR COMPS       2       4
Build
         2         0         2
*LOAD_NODE_SET
$HMNAME LOADCOLS       1LoadNode_1
         3         1               300.0
$	 moving flux
         2         5                 0.0
$	 Radiation
         2         4                 0.2
$	 convection
         2         3             0.00005
*INITIAL_TEMPERATURE_SET
$HMNAME LOADCOLS       1InitialTemp_1
$HWCOLOR LOADCOLS       1       3
         1     300.0
*DEFINE_CURVE
         1                 1.0       1.0
          0.06000000          2.00000000
          0.26000000          3.00000000
          0.46000000          4.00000000
          0.66000000          5.00000000
*NODE
$#   nid               x               y               z      tc      rc
       1        0.000000        0.000000        1.000000       0       0
       2        0.000000        1.000000        1.000000       0       0
       3        0.000000        1.000000        0.000000       0       0
       4        0.000000        0.000000        0.000000       0       0
       5        5.000000        1.000000        1.000000       0       0
       6        5.000000        1.000000        0.000000       0       0
       7        5.000000        0.000000        0.000000       0       0
       8        5.000000        0.000000        1.000000       0       0
       9       -1.000000        2.000000        0.000000       0       0
      10       -1.000000       -1.000000        0.000000       0       0
      11        6.000000       -1.000000        0.000000       0       0
      12        6.000000        2.000000        0.000000       0       0
      13        6.000000       -1.000000       -1.000000       0       0
      14       -1.000000       -1.000000       -1.000000       0       0
      15       -1.000000        2.000000       -1.000000       0       0
      16        6.000000        2.000000       -1.000000       0       0
      17        1.000000        0.000000        0.000000       0       0
      18        2.000000        0.000000        0.000000       0       0
      19        3.000000        0.000000        0.000000       0       0
      20        4.000000        0.000000        0.000000       0       0
$ ... 56 like lines cut
*ELEMENT_SOLID
$#   eid     pid      n1      n2      n3      n4      n5      n6      n7      n8
       1       1      24      29      28      17       1       2       3       4
       2       1      23      30      27      18      24      29      28      17
       3       1      22      31      26      19      23      30      27      18
       4       1      21      32      25      20      22      31      26      19
       5       1       8       5       6       7      21      32      25      20
       6       2      17       4       3      28      72      66      67      73
       7       2      18      17      28      27      71      72      73      74
       8       2      19      18      27      26      70      71      74      75
       9       2      20      19      26      25      69      70      75      76
      10       2       7      20      25       6      65      69      76      68
      11       2      40       7      41      11      49      65      64      13
      12       2      41       7       6      42      64      65      68      63
      13       2      42       6      43      12      63      68      62      16
      14       2      27      28      47      46      74      73      58      59
      15       2      48       3      33       9      57      67      56      15
      16       2      34       4      35      10      55      66      54      14
      17       2      19      20      39      38      70      69      50      51
      18       2      33       3       4      34      56      67      66      55
      19       2      20       7      40      39      69      65      49      50
      20       2      17      18      37      36      72      71      52      53
$ ... 6 like lines cut
*SET_NODE_LIST
$#     sid       da1       da2       da3       da4    solver
         1
$#    nid1      nid2      nid3      nid4      nid5      nid6      nid7      nid8
         1         2         3         4         5         6         7         8
         9        10        11        12        13        14        15        16
        17        18        19        20        21        22        23        24
        25        26        27        28        29        30        31        32
        33        34        35        36        37        38        39        40
        41        42        43        44        45        46        47        48
        49        50        51        52        53        54        55        56
        57        58        59        60        61        62        63        64
        65        66        67        68        69        70        71        72
        73        74        75        76
*SET_NODE_LIST
$#     sid       da1       da2       da3       da4    solver
         2
$#    nid1      nid2      nid3      nid4      nid5      nid6      nid7      nid8
         1         2         3         4         5         6         7         8
         9        10        11        12        17        18        19        20
        21        22        23        24        25        26        27        28
        29        30        31        32        33        34        35        36
        37        38        39        40        41        42        43        44
        45        46        47        48
*SET_NODE_LIST
$#     sid       da1       da2       da3       da4    solver
         3
$#    nid1      nid2      nid3      nid4      nid5      nid6      nid7      nid8
        13        14        15        16        49        50        51        52
        53        54        55        56        57        58        59        60
        61        62        63        64        65        66        67        68
        69        70        71        72        73        74        75        76

*SET_SOLID
$#     sid    solver
         1MECH
$#      k1        k2        k3        k4        k5        k6        k7        k8
         1         2         3         4         5
*SET_SOLID
$#     sid    solver
         2MECH
$#      k1        k2        k3        k4        k5        k6        k7        k8
         6         7         8         9        10        11        12        13
        14        15        16        17        18        19        20        21
        22        23        24        25        26
*END