*KEYWORD_ID
DED
*PARAMETER
Rboltz    5.6704E-14
*PARAMETER
Rambient       300.0
*PARAMETER
Rabszero         0.0
*TOOL_FILE
1_stsl.crs
*GAUSS_LASER
400 1.12 0.4
*SCALAR_OUT
temp
solid_rate
theta_hist
nid_true
*CONTROL_TERMINATION
$$  ENDTIM    ENDCYC     DTMIN    ENDENG    ENDMAS
   1
*CONTROL_TIMESTEP
$$  DTINIT    TSSFAC      ISDO    TSLIMT     DT2MS      LCTM     EROD       E     MSIST
    0.01       1.0
*CONTROL_SOLUTION
$$    SOLN
         0
*DATABASE_NODOUT
$$      DT    BINARY      LCUR      IOPT      DTHF     BINHF
    10.000         0
*MAT_THERMAL_ISOTROPIC_TD
$HMNAME MATS       1MATT1_1
         1   0.0081 1533  1609   250
./materials/IN718_cp.txt
./materials/IN718_cond.txt
*MAT_THERMAL_ISOTROPIC_TD
$HMNAME MATS       2MATT1_2
         2   0.0081 1533  1609   250
./materials/IN718_cp.txt
./materials/IN718_cond.txt
*PART
$HWCOLOR COMPS       1       3
Substrate
         1         0         1
$HWCOLOR COMPS       2       4
Build
         2         0         2
*LOAD_NODE_SET
$HMNAME LOADCOLS       1LoadNode_1
         3         1               300.0
$	 moving flux
         2         5                 0.0
$	 Radiation
         2         4                 0.2
$	 convection
         2         3             0.00005
*INITIAL_TEMPERATURE_SET
$HMNAME LOADCOLS       1InitialTemp_1
$HWCOLOR LOADCOLS       1       3
         1     300.0
*DEFINE_CURVE
         1                 1.0       1.0
          0.05000000         13.00000000
          0.05000000         14.00000000
          0.05000000         15.00000000
          0.05000000         16.00000000
          0.10000000         19.00000000
          0.10000000         17.00000000
          0.10000000         18.00000000
          0.10000000         20.00000000
          0.15000000         23.00000000
          0.15000000         22.00000000
          0.15000000         24.00000000
          0.15000000         21.00000000
          0.20000000         25.00000000
          0.20000000         26.00000000
          0.20000000         27.00000000
          0.20000000         28.00000000
          0.25000000         31.00000000
          0.25000000         32.00000000
          0.25000000         29.00000000
$ ... 9 like lines cut
*NODE
$#   nid               x               y               z      tc      rc
       1        0.000000        0.000000        1.000000       0       0
       2        0.000000        1.000000        1.000000       0       0
       3        0.000000        1.000000        0.000000       0       0
       4        0.000000        0.000000        0.000000       0       0
       5        5.000000        1.000000        1.000000       0       0
       6        5.000000        1.000000        0.000000       0       0
       7        5.000000        0.000000        0.000000       0       0
       8        5.000000        0.000000        1.000000       0       0
       9       -1.000000        2.000000        0.000000       0       0
      10       -1.000000       -1.000000        0.000000       0       0
      11        6.000000       -1.000000        0.000000       0       0
      12        6.000000        2.000000        0.000000       0       0
      13        6.000000       -1.000000       -1.000000       0       0
      14       -1.000000       -1.000000       -1.000000       0       0
      15       -1.000000        2.000000       -1.000000       0       0
      16        6.000000        2.000000       -1.000000       0       0
      17        0.000000        0.500000        1.000000       0       0
      18        0.000000        1.000000        0.500000       0       0
      19        0.000000        0.500000        0.000000       0       0
      20        0.000000        0.000000        0.500000       0       0
$ ... 361 like lines cut
*ELEMENT_SOLID
$#   eid     pid      n1      n2      n3      n4      n5      n6      n7      n8
       1       1      42     157     308     139       1      17     137      20
       2       1     157      52     148     308      17       2      18     137
       3       1     139     308     166      25      20     137      19       4
       4       1     308     148      51     166     137      18       3      19
       5       1      41     158     309     140      42     157     308     139
       6       1     158      53     149     309     157      52     148     308
       7       1     140     309     167      26     139     308     166      25
       8       1     309     149      50     167     308     148      51     166
       9       1      40     159     310     141      41     158     309     140
      10       1     159      54     150     310     158      53     149     309
      11       1     141     310     168      27     140     309     167      26
      12       1     310     150      49     168     309     149      50     167
      13       1      39     160     311     142      40     159     310     141
      14       1     160      55     151     311     159      54     150     310
      15       1     142     311     169      28     141     310     168      27
      16       1     311     151      48     169     310     150      49     168
      17       1      38     161     312     143      39     160     311     142
      18       1     161      56     152     312     160      55     151     311
      19       1     143     312     170      29     142     311     169      28
      20       1     312     152      47     170     311     151      48     169
$ ... 188 like lines cut
*SET_NODE_LIST
$#     sid       da1       da2       da3       da4    solver
         1
$#    nid1      nid2      nid3      nid4      nid5      nid6      nid7      nid8
         1         2         3         4         5         6         7         8
         9        10        11        12        13        14        15        16
        17        18        19        20        21        22        23        24
        25        26        27        28        29        30        31        32
        33        34        35        36        37        38        39        40
        41        42        43        44        45        46        47        48
        49        50        51        52        53        54        55        56
        57        58        59        60        61        62        63        64
        65        66        67        68        69        70        71        72
        73        74        75        76        77        78        79        80
        81        82        83        84        85        86        87        88
        89        90        91        92        93        94        95        96
        97        98        99       100       101       102       103       104
       105       106       107       108       109       110       111       112
       113       114       115       116       117       118       119       120
       121       122       123       124       125       126       127       128
       129       130       131       132       133       134       135       136
       137       138       139       140       141       142       143       144
       145       146       147       148       149       150       151       152
       153       154       155       156       157       158       159       160
$ ... 28 like lines cut
*SET_NODE_LIST
$#     sid       da1       da2       da3       da4    solver
         2
$#    nid1      nid2      nid3      nid4      nid5      nid6      nid7      nid8
         1         2         3         4         5         6         7         8
         9        10        11        12        17        18        19        20
        21        22        23        24        25        26        27        28
        29        30        31        32        33        34        35        36
        37        38        39        40        41        42        43        44
        45        46        47        48        49        50        51        52
        53        54        55        56        57        58        59        60
        61        62        63        64        65        66        67        68
        69        70        71        72        73        74        75        76
        77        78        79        80        81        82        83        84
        85        86        87        88        89        90        91        92
        93        94        95        96       137       138       139       140
       141       142       143       144       145       146       147       148
       149       150       151       152       153       154       155       156
       157       158       159       160       161       162       163       164
       165       166       167       168       169       170       171       172
       173       174       175       176       177       178       179       180
       181       182       183       184       185       186       187       188
       189       190       191       192       193       194       195       196
       197       198       199       200       201       202       203       204
       205       206       308       309       310       311       312       313
       314       315       316
*SET_NODE_LIST
$#     sid       da1       da2       da3       da4    solver
         3
$#    nid1      nid2      nid3      nid4      nid5      nid6      nid7      nid8
        13        14        15        16       101       102       103       104
       105       106       107       108       109       110       111       112
       113       114       115       116       117       118       119       120
       121       122       123       124       125       126       127       128
       129       130       131       132       133       134       135       136
       207       208       209       210       211       212       213       214
       215       216       217       218       219       220       221       222
       223       224       225       226       227       228       229       230
       231       232       233       234       235       236       237       238
       239       240       241       242       243       244       245       246
       247       248       249       250       251       252       253       254
       255       256       257       258       259       260       261       262
       263       264       265       266       267       268       269       270
       271
*SET_SOLID
$#     sid    solver
         1MECH
$#      k1        k2        k3        k4        k5        k6        k7        k8
         1         2         3         4         5         6         7         8
         9        10        11        12        13        14        15        16
        17        18        19        20        21        22        23        24
        25        26        27        28        29        30        31        32
        33        34        35        36        37        38        39        40

*SET_SOLID
$#     sid    solver
         2MECH
$#      k1        k2        k3        k4        k5        k6        k7        k8
        41        42        43        44        45        46        47        48
        49        50        51        52        53        54        55        56
        57        58        59        60        61        62        63        64
        65        66        67        68        69        70        71        72
        73        74        75        76        77        78        79        80
        81        82        83        84        85        86        87        88
        89        90        91        92        93        94        95        96
        97        98        99       100       101       102       103       104
       105       106       107       108       109       110       111       112
       113       114       115       116       117       118       119       120
       121       122       123       124       125       126       127       128
       129       130       131       132       133       134       135       136
       137       138       139       140       141       142       143       144
       145       146       147       148       149       150       151       152
       153       154       155       156       157       158       159       160
       161       162       163       164       165       166       167       168
       169       170       171       172       173       174       175       176
       177       178       179       180       181       182       183       184
       185       186       187       188       189       190       191       192
       193       194       195       196       197       198       199       200
       201       202       203       204       205       206       207       208

*END