*KEYWORD_ID
DED
*PARAMETER
Rboltz    5.6704E-14
*PARAMETER
Rambient       300.0
*PARAMETER
Rabszero         0.0
*TOOL_FILE
2_stml.crs
*GAUSS_LASER
400 1.12 0.4
*SCALAR_OUT
temp
solid_rate
theta_hist
nid_true
*CONTROL_TERMINATION
$$  ENDTIM    ENDCYC     DTMIN    ENDENG    ENDMAS
   3.0
*CONTROL_TIMESTEP
$$  DTINIT    TSSFAC      ISDO    TSLIMT     DT2MS      LCTM     EROD       E     MSIST
    0.01       1.0
*CONTROL_SOLUTION
$$    SOLN
         0
*DATABASE_NODOUT
$$      DT    BINARY      LCUR      IOPT      DTHF     BINHF
    10.000         0
*MAT_THERMAL_ISOTROPIC_TD
$HMNAME MATS       1MATT1_1
         1   0.0081 1533  1609   250
./materials/IN718_cp.txt
./materials/IN718_cond.txt
*MAT_THERMAL_ISOTROPIC_TD
$HMNAME MATS       2MATT1_2
         2   0.0081 1533  1609   250
./materials/IN718_cp.txt
./materials/IN718_cond.txt
*PART
$HWCOLOR COMPS       1       3
Substrate
         1         0         1
$HWCOLOR COMPS       2       4
Build
         2         0         2
*LOAD_NODE_SET
$HMNAME LOADCOLS       1LoadNode_1
         3         1               300.0
$	 moving flux
         2         5                 0.0
$	 Radiation
         2         4                 0.2
$	 convection
         2         3             0.00005
*INITIAL_TEMPERATURE_SET
$HMNAME LOADCOLS       1InitialTemp_1
$HWCOLOR LOADCOLS       1       3
         1     300.0
*DEFINE_CURVE
         1                 1.0       1.0
          0.05000000         45.00000000
          0.05000000         46.00000000
          0.05000000         48.00000000
          0.05000000         47.00000000
          0.10000000         57.00000000
          0.10000000         58.00000000
          0.10000000         59.00000000
          0.10000000         60.00000000
          0.15000000         71.00000000
          0.15000000         69.00000000
          0.15000000         70.00000000
          0.15000000         72.00000000
          0.20000000         81.00000000
          0.20000000         82.00000000
          0.20000000         83.00000000
          0.20000000         84.00000000
          0.25000000         95.00000000
          0.25000000         94.00000000
          0.25000000         93.00000000
$ ... 89 like lines cut
*NODE
$#   nid               x               y               z      tc      rc
       1        0.000000        0.000000        3.000000       0       0
       2        0.000000        1.000000        3.000000       0       0
       3        0.000000        1.000000        0.000000       0       0
       4        0.000000        0.000000        0.000000       0       0
       5        5.000000        1.000000        3.000000       0       0
       6        5.000000        1.000000        0.000000       0       0
       7        5.000000        0.000000        0.000000       0       0
       8        5.000000        0.000000        3.000000       0       0
       9       -1.000000        2.000000        0.000000       0       0
      10       -1.000000       -1.000000        0.000000       0       0
      11        6.000000       -1.000000        0.000000       0       0
      12        6.000000        2.000000        0.000000       0       0
      13        6.000000       -1.000000       -1.000000       0       0
      14       -1.000000       -1.000000       -1.000000       0       0
      15       -1.000000        2.000000       -1.000000       0       0
      16        6.000000        2.000000       -1.000000       0       0
      17        0.000000        0.500000        3.000000       0       0
      18        0.000000        1.000000        2.500000       0       0
      19        0.000000        1.000000        2.000000       0       0
      20        0.000000        1.000000        1.500000       0       0
$ ... 493 like lines cut
*ELEMENT_SOLID
$#   eid     pid      n1      n2      n3      n4      n5      n6      n7      n8
       1       1      58     253     404     163       1      17     153      28
       2       1     253      68     208     404      17       2      18     153
       3       1     163     404     405     164      28     153     154      27
       4       1     404     208     209     405     153      18      19     154
       5       1     164     405     406     165      27     154     155      26
       6       1     405     209     210     406     154      19      20     155
       7       1     165     406     407     166      26     155     156      25
       8       1     406     210     211     407     155      20      21     156
       9       1     166     407     408     167      25     156     157      24
      10       1     407     211     212     408     156      21      22     157
      11       1     167     408     262      41      24     157      23       4
      12       1     408     212      67     262     157      22       3      23
      13       1      57     254     409     168      58     253     404     163
      14       1     254      69     213     409     253      68     208     404
      15       1     168     409     410     169     163     404     405     164
      16       1     409     213     214     410     404     208     209     405
      17       1     169     410     411     170     164     405     406     165
      18       1     410     214     215     411     405     209     210     406
      19       1     170     411     412     171     165     406     407     166
      20       1     411     215     216     412     406     210     211     407
$ ... 268 like lines cut
*SET_NODE_LIST
$#     sid       da1       da2       da3       da4    solver
         1
$#    nid1      nid2      nid3      nid4      nid5      nid6      nid7      nid8
         1         2         3         4         5         6         7         8
         9        10        11        12        13        14        15        16
        17        18        19        20        21        22        23        24
        25        26        27        28        29        30        31        32
        33        34        35        36        37        38        39        40
        41        42        43        44        45        46        47        48
        49        50        51        52        53        54        55        56
        57        58        59        60        61        62        63        64
        65        66        67        68        69        70        71        72
        73        74        75        76        77        78        79        80
        81        82        83        84        85        86        87        88
        89        90        91        92        93        94        95        96
        97        98        99       100       101       102       103       104
       105       106       107       108       109       110       111       112
       113       114       115       116       117       118       119       120
       121       122       123       124       125       126       127       128
       129       130       131       132       133       134       135       136
       137       138       139       140       141       142       143       144
       145       146       147       148       149       150       151       152
       153       154       155       156       157       158       159       160
$ ... 45 like lines cut
*SET_NODE_LIST
$#     sid       da1       da2       da3       da4    solver
         2
$#    nid1      nid2      nid3      nid4      nid5      nid6      nid7      nid8
         1         2         3         4         5         6         7         8
         9        10        11        12        17        18        19        20
        21        22        23        24        25        26        27        28
        29        30        31        32        33        34        35        36
        37        38        39        40        41        42        43        44
        45        46        47        48        49        50        51        52
        53        54        55        56        57        58        59        60
        61        62        63        64        65        66        67        68
        69        70        71        72        73        74        75        76
        77        78        79        80        81        82        83        84
        85        86        87        88        89        90        91        92
        93        94        95        96        97        98        99       100
       101       102       103       104       105       106       107       108
       109       110       111       112       153       154       155       156
       157       158       159       160       161       162       163       164
       165       166       167       168       169       170       171       172
       173       174       175       176       177       178       179       180
       181       182       183       184       185       186       187       188
       189       190       191       192       193       194       195       196
       197       198       199       200       201       202       203       204
$ ... 18 like lines cut
*SET_NODE_LIST
$#     sid       da1       da2       da3       da4    solver
         3
$#    nid1      nid2      nid3      nid4      nid5      nid6      nid7      nid8
        13        14        15        16       117       118       119       120
       121       122       123       124       125       126       127       128
       129       130       131       132       133       134       135       136
       137       138       139       140       141       142       143       144
       145       146       147       148       149       150       151       152
       303       304       305       306       307       308       309       310
       311       312       313       314       315       316       317       318
       319       320       321       322       323       324       325       326
       327       328       329       330       331       332       333       334
       335       336       337       338       339       340       341       342
       343       344       345       346       347       348       349       350
       351       352       353       354       355       356       357       358
       359       360       361       362       363       364       365       366
       367
*SET_SOLID
$#     sid    solver
         1MECH
$#      k1        k2        k3        k4        k5        k6        k7        k8
         1         2         3         4         5         6         7         8
         9        10        11        12        13        14        15        16
        17        18        19        20        21        22        23        24
        25        26        27        28        29        30        31        32
        33        34        35        36        37        38        39        40
        41        42        43        44        45        46        47        48
        49        50        51        52        53        54        55        56
        57        58        59        60        61        62        63        64
        65        66        67        68        69        70        71        72
        73        74        75        76        77        78        79        80
        81        82        83        84        85        86        87        88
        89        90        91        92        93        94        95        96
        97        98        99       100       101       102       103       104
       105       106       107       108       109       110       111       112
       113       114       115       116       117       118       119       120

*SET_SOLID
$#     sid    solver
         2MECH
$#      k1        k2        k3        k4        k5        k6        k7        k8
       121       122       123       124       125       126       127       128
       129       130       131       132       133       134       135       136
       137       138       139       140       141       142       143       144
       145       146       147       148       149       150       151       152
       153       154       155       156       157       158       159       160
       161       162       163       164       165       166       167       168
       169       170       171       172       173       174       175       176
       177       178       179       180       181       182       183       184
       185       186       187       188       189       190       191       192
       193       194       195       196       197       198       199       200
       201       202       203       204       205       206       207       208
       209       210       211       212       213       214       215       216
       217       218       219       220       221       222       223       224
       225       226       227       228       229       230       231       232
       233       234       235       236       237       238       239       240
       241       242       243       244       245       246       247       248
       249       250       251       252       253       254       255       256
       257       258       259       260       261       262       263       264
       265       266       267       268       269       270       271       272
       273       274       275       276       277       278       279       280
       281       282       283       284       285       286       287       288

*END