*KEYWORD_ID
DED
*PARAMETER
Rboltz    5.6704E-14
*PARAMETER
Rambient       300.0
*PARAMETER
Rabszero         0.0
*TOOL_FILE
3_mtsl.crs
*GAUSS_LASER
400 1.12 0.4
*SCALAR_OUT
temp
solid_rate
theta_hist
nid_true
*CONTROL_TERMINATION
$$  ENDTIM    ENDCYC     DTMIN    ENDENG    ENDMAS
   2.1
*CONTROL_TIMESTEP
$$  DTINIT    TSSFAC      ISDO    TSLIMT     DT2MS      LCTM     EROD       E     MSIST
    0.01       1.0
*CONTROL_SOLUTION
$$    SOLN
         0
*DATABASE_NODOUT
$$      DT    BINARY      LCUR      IOPT      DTHF     BINHF
    10.000         0
*MAT_THERMAL_ISOTROPIC_TD
$HMNAME MATS       1MATT1_1
         1   0.0081 1533  1609   250
./materials/IN718_cp.txt
./materials/IN718_cond.txt
*MAT_THERMAL_ISOTROPIC_TD
$HMNAME MATS       2MATT1_2
         2   0.0081 1533  1609   250
./materials/IN718_cp.txt
./materials/IN718_cond.txt
*PART
$HWCOLOR COMPS       1       3
Substrate
         1         0         1
$HWCOLOR COMPS       2       4
Build
         2         0         2
*LOAD_NODE_SET
$HMNAME LOADCOLS       1LoadNode_1
         3         1               300.0
$	 moving flux
         2         5                 0.0
$	 Radiation
         2         4                 0.2
$	 convection
         2         3             0.00005
*INITIAL_TEMPERATURE_SET
$HMNAME LOADCOLS       1InitialTemp_1
$HWCOLOR LOADCOLS       1       3
         1     300.0
*DEFINE_CURVE
         1                 1.0       1.0
          0.05000000        164.00000000
          0.05000000        163.00000000
          0.05000000        167.00000000
          0.05000000        166.00000000
          0.05000000        168.00000000
          0.05000000        162.00000000
          0.10000000        158.00000000
          0.10000000        159.00000000
          0.10000000        160.00000000
          0.10000000        154.00000000
          0.10000000        156.00000000
          0.10000000        155.00000000
          0.15000000        152.00000000
          0.15000000        151.00000000
          0.15000000        150.00000000
          0.15000000        148.00000000
          0.15000000        147.00000000
          0.15000000        146.00000000
          0.20000000        144.00000000
$ ... 53 like lines cut
*NODE
$#   nid               x               y               z      tc      rc
       1        2.000000        2.000000        0.000000       0       0
       2        2.000000        2.000000       -1.000000       0       0
       3        2.000000        5.000000       -1.000000       0       0
       4        2.000000        4.000000        0.000000       0       0
       5        2.000000        5.000000        0.000000       0       0
       6        5.000000        2.000000        0.000000       0       0
       7        5.000000        2.000000       -1.000000       0       0
       8        5.000000        5.000000       -1.000000       0       0
       9        5.000000        5.000000        0.000000       0       0
      10        4.000000        2.000000        0.000000       0       0
      11        2.000000        0.000000        1.000000       0       0
      12        2.000000        2.000000        1.000000       0       0
      13        0.000000        2.000000        1.000000       0       0
      14        0.000000        0.000000        1.000000       0       0
      15        0.000000        2.000000        0.000000       0       0
      16        0.000000        0.000000        0.000000       0       0
      17        2.000000        0.000000        0.000000       0       0
      18        0.000000        4.000000        1.000000       0       0
      19        0.000000        4.000000        0.000000       0       0
      20        2.000000        4.000000        1.000000       0       0
$ ... 617 like lines cut
*ELEMENT_SOLID
$#   eid     pid      n1      n2      n3      n4      n5      n6      n7      n8
       1       2     215      34     275     511      43       1      62     225
       2       2      35       2      75     250     215      34     275     511
       3       2     216     215     511     512      42      43     225     226
       4       2      36      35     250     251     216     215     511     512
       5       2     217     216     512     513      41      42     226     227
       6       2      37      36     251     252     217     216     512     513
       7       2     218     217     513     514       4      41     227     228
       8       2      38      37     252     253     218     217     513     514
       9       2     219     218     514     515      44       4     228     229
      10       2      39      38     253     254     219     218     514     515
      11       2      40     219     515     280       5      44     229      61
      12       2       3      39     254      66      40     219     515     280
      13       2     511     275     276     516     225      62      63     230
      14       2     250      75      74     255     511     275     276     516
      15       2     512     511     516     517     226     225     230     231
      16       2     251     250     255     256     512     511     516     517
      17       2     513     512     517     518     227     226     231     232
      18       2     252     251     256     257     513     512     517     518
      19       2     514     513     518     519     228     227     232     233
      20       2     253     252     257     258     514     513     518     519
$ ... 364 like lines cut
*SET_NODE_LIST
$#     sid       da1       da2       da3       da4    solver
         1
$#    nid1      nid2      nid3      nid4      nid5      nid6      nid7      nid8
         1         2         3         4         5         6         7         8
         9        10        11        12        13        14        15        16
        17        18        19        20        21        22        23        24
        25        26        27        28        29        30        31        32
        33        34        35        36        37        38        39        40
        41        42        43        44        45        46        47        48
        49        50        51        52        53        54        55        56
        57        58        59        60        61        62        63        64
        65        66        67        68        69        70        71        72
        73        74        75        76        77        78        79        80
        81        82        83        84        85        86        87        88
        89        90        91        92        93        94        95        96
        97        98        99       100       101       102       103       104
       105       106       107       108       109       110       111       112
       113       114       115       116       117       118       119       120
       121       122       123       124       125       126       127       128
       129       130       131       132       133       134       135       136
       137       138       139       140       141       142       143       144
       145       146       147       148       149       150       151       152
       153       154       155       156       157       158       159       160
$ ... 60 like lines cut
*SET_NODE_LIST
$#     sid       da1       da2       da3       da4    solver
         2
$#    nid1      nid2      nid3      nid4      nid5      nid6      nid7      nid8
         1         4         5         6         9        10        11        12
        13        14        15        16        17        18        19        20
        21        22        23        24        25        28        29        32
        41        42        43        44        52        53        54        55
        56        57        58        59        60        61        62        63
        64        65        76        77        78        79        80        81
        82        83        84        85        86        87        88        89
        90        91        92        93        94        95        96        97
        98        99       100       101       102       103       104       105
       106       107       108       109       110       111       112       113
       114       115       116       117       118       119       120       121
       122       123       124       125       126       127       128       129
       130       131       132       133       134       135       136       137
       138       139       140       141       142       143       144       145
       146       147       148       166       167       168       169       170
       171       172       173       174       175       176       194       195
       196       197       198       199       200       201       202       203
       225       226       227       228       229       230       231       232
       233       234       235       236       237       238       239       240
       241       242       243       244       245       246       247       248
$ ... 18 like lines cut
*SET_NODE_LIST
$#     sid       da1       da2       da3       da4    solver
         3
$#    nid1      nid2      nid3      nid4      nid5      nid6      nid7      nid8
         2         3         7         8        26        27        30        31
        33        35        36        37        38        39        46        47
        48        49        50        66        67        68        69        70
        71        72        73        74        75       151       152       153
       154       155       156       157       158       159       160       161
       162       163       164       165       179       180       181       182
       183       184       185       186       187       188       189       190
       191       192       193       205       206       207       208       209
       210       211       212       213       214       250       251       252
       253       254       255       256       257       258       259       260
       261       262       263       264       265       266       267       268
       269       270       271       272       273       274       378       379
       380       381       382       383       384       385       386       387
       388       389       390       391       392       393       394       395
       396       397       398       399       400       401       402       427
       428       429       430       431       432       433       434       435
       436       437       438       439       440       441       442       443
       444       445       446       447       448       449       450       451
       476       477       478       479       480       481       482       483
       484       485       486       487       488       489       490       491
       492       493       494       495       496       497       498       499
       500
*SET_SOLID
$#     sid    solver
         1MECH
$#      k1        k2        k3        k4        k5        k6        k7        k8
        73        74        75        76        77        78        79        80
        81        82        83        84        85        86        87        88
        89        90        91        92        93        94        95        96
        97        98        99       100       101       102       103       104
       105       106       107       108       109       110       111       112
       113       114       115       116       117       118       119       120
       121       122       123       124       125       126       127       128
       129       130       131       132       133       134       135       136
       137       138       139       140       141       142       143       144
       145       146       147       148       149       150       151       152
       153       154       155       156       157       158       159       160
       161       162       163       164       165       166       167       168

*SET_SOLID
$#     sid    solver
         2MECH
$#      k1        k2        k3        k4        k5        k6        k7        k8
         1         2         3         4         5         6         7         8
         9        10        11        12        13        14        15        16
        17        18        19        20        21        22        23        24
        25        26        27        28        29        30        31        32
        33        34        35        36        37        38        39        40
        41        42        43        44        45        46        47        48
        49        50        51        52        53        54        55        56
        57        58        59        60        61        62        63        64
        65        66        67        68        69        70        71        72
       169       170       171       172       173       174       175       176
       177       178       179       180       181       182       183       184
       185       186       187       188       189       190       191       192
       193       194       195       196       197       198       199       200
       201       202       203       204       205       206       207       208
       209       210       211       212       213       214       215       216
       217       218       219       220       221       222       223       224
       225       226       227       228       229       230       231       232
       233       234       235       236       237       238       239       240
       241       242       243       244       245       246       247       248
       249       250       251       252       253       254       255       256
$ ... 16 like lines cut

*END