*KEYWORD_ID
DED
*PARAMETER
Rboltz    5.6704E-14
*PARAMETER
Rambient       300.0
*PARAMETER
Rabszero         0.0
*TOOL_FILE
4_mtml.crs
*GAUSS_LASER
400 1.12 0.4
*SCALAR_OUT
temp
solid_rate
theta_hist
nid_true
*CONTROL_TERMINATION
$$  ENDTIM    ENDCYC     DTMIN    ENDENG    ENDMAS
   8.3
*CONTROL_TIMESTEP
$$  DTINIT    TSSFAC      ISDO    TSLIMT     DT2MS      LCTM     EROD       E     MSIST
    0.01       1.0
*CONTROL_SOLUTION
$$    SOLN
         0
*DATABASE_NODOUT
$$      DT    BINARY      LCUR      IOPT      DTHF     BINHF
    10.000         0
*MAT_THERMAL_ISOTROPIC_TD
$HMNAME MATS       1MATT1_1
         1   0.0081 1533  1609   250
./materials/IN718_cp.txt
./materials/IN718_cond.txt
*MAT_THERMAL_ISOTROPIC_TD
$HMNAME MATS       2MATT1_2
         2   0.0081 1533  1609   250
./materials/IN718_cp.txt
./materials/IN718_cond.txt
*PART
$HWCOLOR COMPS       1       3
Substrate
         1         0         1
$HWCOLOR COMPS       2       4
Build
         2         0         2
*LOAD_NODE_SET
$HMNAME LOADCOLS       1LoadNode_1
         3         1               300.0
$	 moving flux
         2         5                 0.0
$	 Radiation
         2         4                 0.2
$	 convection
         2         3             0.00005
*INITIAL_TEMPERATURE_SET
$HMNAME LOADCOLS       1InitialTemp_1
$HWCOLOR LOADCOLS       1       3
         1     300.0
*DEFINE_CURVE
         1                 1.0       1.0
          0.05000000         18.00000000
          0.05000000         12.00000000
          0.05000000         11.00000000
          0.05000000         23.00000000
          0.05000000         24.00000000
          0.05000000         17.00000000
          0.10000000         47.00000000
          0.10000000         42.00000000
          0.10000000         41.00000000
          0.10000000         36.00000000
          0.10000000         35.00000000
          0.10000000         48.00000000
          0.15000000         59.00000000
          0.15000000         72.00000000
          0.15000000         71.00000000
          0.15000000         66.00000000
          0.15000000         65.00000000
          0.15000000         60.00000000
          0.20000000         95.00000000
$ ... 245 like lines cut
*NODE
$#   nid               x               y               z      tc      rc
       1        2.000000        2.000000        3.000000       0       0
       2        2.000000        2.000000        0.000000       0       0
       3        2.000000        0.000000        0.000000       0       0
       4        2.000000        0.000000        3.000000       0       0
       5        4.000000        2.000000        0.000000       0       0
       6        4.000000        0.000000        0.000000       0       0
       7        4.000000        0.000000        3.000000       0       0
       8        4.000000        2.000000        3.000000       0       0
       9        0.000000        2.000000        3.000000       0       0
      10        0.000000        2.000000        0.000000       0       0
      11        0.000000        0.000000        0.000000       0       0
      12        0.000000        0.000000        3.000000       0       0
      13        2.000000        2.000000       -1.000000       0       0
      14        5.000000        2.000000       -1.000000       0       0
      15        5.000000        2.000000        0.000000       0       0
      16        2.000000        5.000000       -1.000000       0       0
      17        5.000000        5.000000       -1.000000       0       0
      18        5.000000        5.000000        0.000000       0       0
      19        2.000000        5.000000        0.000000       0       0
      20        2.000000        4.000000        0.000000       0       0
$ ... 877 like lines cut
*ELEMENT_SOLID
$#   eid     pid      n1      n2      n3      n4      n5      n6      n7      n8
       1       1      71     295     663     277       1      34     247      49
       2       1     295     296     664     663      34      35     248     247
       3       1     296     297     665     664      35      36     249     248
       4       1     297     298     666     665      36      37     250     249
       5       1     298     299     667     666      37      38     251     250
       6       1     299      75     286     667      38       2      39     251
       7       1     277     663     668     278      49     247     252      48
       8       1     663     664     669     668     247     248     253     252
       9       1     664     665     670     669     248     249     254     253
      10       1     665     666     671     670     249     250     255     254
      11       1     666     667     672     671     250     251     256     255
      12       1     667     286     287     672     251      39      40     256
      13       1     278     668     673     279      48     252     257      47
      14       1     668     669     674     673     252     253     258     257
      15       1     669     670     675     674     253     254     259     258
      16       1     670     671     676     675     254     255     260     259
      17       1     671     672     677     676     255     256     261     260
      18       1     672     287     288     677     256      40      41     261
      19       1     279     673     310      66      47     257      46       4
      20       1     673     674     311     310     257     258      45      46
$ ... 556 like lines cut
*SET_NODE_LIST
$#     sid       da1       da2       da3       da4    solver
         1
$#    nid1      nid2      nid3      nid4      nid5      nid6      nid7      nid8
         1         2         3         4         5         6         7         8
         9        10        11        12        13        14        15        16
        17        18        19        20        21        22        23        24
        25        26        27        28        29        30        31        32
        33        34        35        36        37        38        39        40
        41        42        43        44        45        46        47        48
        49        50        51        52        53        54        55        56
        57        58        59        60        61        62        63        64
        65        66        67        68        69        70        71        72
        73        74        75        76        77        78        79        80
        81        82        83        84        85        86        87        88
        89        90        91        92        93        94        95        96
        97        98        99       100       101       102       103       104
       105       106       107       108       109       110       111       112
       113       114       115       116       117       118       119       120
       121       122       123       124       125       126       127       128
       129       130       131       132       133       134       135       136
       137       138       139       140       141       142       143       144
       145       146       147       148       149       150       151       152
       153       154       155       156       157       158       159       160
$ ... 93 like lines cut
*SET_NODE_LIST
$#     sid       da1       da2       da3       da4    solver
         2
$#    nid1      nid2      nid3      nid4      nid5      nid6      nid7      nid8
         1         2         3         4         5         6         7         8
         9        10        11        12        15        18        19        20
        21        22        23        24        25        28        29        32
        34        35        36        37        38        39        40        41
        42        43        44        45        46        47        48        49
        50        51        52        53        54        55        56        57
        58        59        60        61        62        63        64        65
        66        67        68        69        70        71        72        73
        74        75        76        77        78        79        80        81
        82        83        84        85        86        87        88        89
        90        91        92        93        94        95        96        97
        98        99       100       101       102       103       104       105
       113       121       122       123       124       125       126       127
       128       129       130       131       132       133       134       145
       146       147       148       149       150       151       152       153
       154       155       156       157       158       159       160       161
       162       163       164       165       166       167       168       169
       170       171       172       173       174       175       176       177
       178       179       180       198       199       200       201       202
       203       204       205       206       207       208       226       227
$ ... 50 like lines cut
*SET_NODE_LIST
$#     sid       da1       da2       da3       da4    solver
         3
$#    nid1      nid2      nid3      nid4      nid5      nid6      nid7      nid8
        13        14        16        17        26        27        30        31
        33       107       108       109       110       111       115       116
       117       118       119       135       136       137       138       139
       140       141       142       143       144       183       184       185
       186       187       188       189       190       191       192       193
       194       195       196       197       211       212       213       214
       215       216       217       218       219       220       221       222
       223       224       225       237       238       239       240       241
       242       243       244       245       246       423       424       425
       426       427       428       429       430       431       432       433
       434       435       436       437       438       439       440       441
       442       443       444       445       446       447       530       531
       532       533       534       535       536       537       538       539
       540       541       542       543       544       545       546       547
       548       549       550       551       552       553       554       579
       580       581       582       583       584       585       586       587
       588       589       590       591       592       593       594       595
       596       597       598       599       600       601       602       603
       628       629       630       631       632       633       634       635
       636       637       638       639       640       641       642       643
       644       645       646       647       648       649       650       651
       652
*SET_SOLID
$#     sid    solver
         1MECH
$#      k1        k2        k3        k4        k5        k6        k7        k8
         1         2         3         4         5         6         7         8
         9        10        11        12        13        14        15        16
        17        18        19        20        21        22        23        24
        25        26        27        28        29        30        31        32
        33        34        35        36        37        38        39        40
        41        42        43        44        45        46        47        48
        49        50        51        52        53        54        55        56
        57        58        59        60        61        62        63        64
        65        66        67        68        69        70        71        72
        73        74        75        76        77        78        79        80
        81        82        83        84        85        86        87        88
        89        90        91        92        93        94        95        96
        97        98        99       100       101       102       103       104
       105       106       107       108       109       110       111       112
       113       114       115       116       117       118       119       120
       121       122       123       124       125       126       127       128
       129       130       131       132       133       134       135       136
       137       138       139       140       141       142       143       144
       145       146       147       148       149       150       151       152
       153       154       155       156       157       158       159       160
$ ... 16 like lines cut

*SET_SOLID
$#     sid    solver
         2MECH
$#      k1        k2        k3        k4        k5        k6        k7        k8
       193       194       195       196       197       198       199       200
       201       202       203       204       205       206       207       208
       209       210       211       212       213       214       215       216
       217       218       219       220       221       222       223       224
       225       226       227       228       229       230       231       232
       233       234       235       236       237       238       239       240
       241       242       243       244       245       246       247       248
       249       250       251       252       253       254       255       256
       257       258       259       260       261       262       263       264
       361       362       363       364       365       366       367       368
       369       370       371       372       373       374       375       376
       377       378       379       380       381       382       383       384
       385       386       387       388       389       390       391       392
       393       394       395       396       397       398       399       400
       401       402       403       404       405       406       407       408
       409       410       411       412       413       414       415       416
       417       418       419       420       421       422       423       424
       425       426       427       428       429       430       431       432
       433       434       435       436       437       438       439       440
       441       442       443       444       445       446       447       448
$ ... 16 like lines cut

*END